Version 4
SHEET 1 3444 1892
WIRE 96 -96 -48 -96
WIRE 112 -96 96 -96
WIRE 448 -96 400 -96
WIRE -48 -80 -48 -96
WIRE 448 -80 448 -96
WIRE -48 16 -48 0
WIRE 96 16 96 -96
WIRE 112 16 96 16
WIRE 448 16 448 0
WIRE 448 16 400 16
WIRE 528 16 448 16
WIRE 656 16 592 16
WIRE 768 16 656 16
WIRE 928 16 768 16
WIRE 1088 16 1008 16
WIRE 1264 16 1088 16
WIRE 1360 16 1264 16
WIRE 656 32 656 16
WIRE 768 32 768 16
WIRE 96 128 96 16
WIRE 112 128 96 128
WIRE 656 128 656 112
WIRE 656 128 400 128
WIRE 768 128 768 96
WIRE 1088 128 1088 80
WIRE 656 144 656 128
WIRE 1264 160 1264 16
WIRE 1360 160 1264 160
WIRE 1936 160 1904 160
WIRE 1984 160 1936 160
WIRE 2096 160 1984 160
WIRE 2192 160 2096 160
WIRE 1264 176 1264 160
WIRE 2096 176 2096 160
WIRE 2192 176 2192 160
WIRE 96 240 96 128
WIRE 112 240 96 240
WIRE 416 240 400 240
WIRE 496 240 480 240
WIRE 592 240 576 240
WIRE 656 240 656 224
WIRE 1936 240 1936 160
WIRE 1936 240 1904 240
WIRE 1984 240 1984 160
WIRE 592 272 592 240
WIRE 1264 272 1264 256
WIRE 1360 272 1264 272
WIRE 2096 272 2096 240
WIRE 2192 272 2192 256
WIRE 1472 336 1472 320
WIRE 1824 336 1824 320
WIRE 1984 336 1984 320
WIRE 1984 336 1824 336
WIRE 96 352 96 240
WIRE 112 352 96 352
WIRE 480 352 400 352
WIRE 560 352 480 352
WIRE 656 352 624 352
WIRE 768 352 656 352
WIRE 928 352 768 352
WIRE 1024 352 1008 352
WIRE 1984 352 1984 336
WIRE 480 368 480 352
WIRE 768 368 768 352
WIRE 1600 368 1600 320
WIRE 1696 368 1696 320
WIRE 1696 368 1600 368
WIRE 1472 416 1472 400
WIRE 1696 432 1696 368
WIRE 1984 448 1984 432
WIRE 112 464 96 464
WIRE 480 464 480 448
WIRE 656 464 656 352
WIRE 768 464 768 432
WIRE 1744 496 1440 496
WIRE 1568 528 1456 528
WIRE 1984 528 1984 496
WIRE 1984 528 1568 528
WIRE 1456 544 1456 528
WIRE 1568 544 1568 528
WIRE 656 576 656 544
WIRE 656 576 400 576
WIRE 656 592 656 576
WIRE 1984 592 1984 528
WIRE 1456 640 1456 608
WIRE 1568 640 1568 624
WIRE 1568 640 1456 640
WIRE 1568 656 1568 640
WIRE 1744 656 1744 496
WIRE 96 688 96 464
WIRE 112 688 96 688
WIRE 656 688 656 672
WIRE 656 688 400 688
WIRE 1440 688 1440 496
WIRE 1472 688 1440 688
WIRE 656 704 656 688
WIRE 1440 704 1440 688
WIRE 1872 720 1824 720
WIRE 1984 720 1984 656
WIRE 1984 720 1872 720
WIRE 2080 720 1984 720
WIRE 2080 736 2080 720
WIRE 1360 752 1312 752
WIRE 1472 752 1440 752
WIRE 1872 768 1872 720
WIRE 1872 768 1824 768
WIRE 656 784 656 768
WIRE 1872 784 1872 768
WIRE 112 800 80 800
WIRE 416 800 400 800
WIRE 496 800 480 800
WIRE 592 800 576 800
WIRE 1312 816 1312 752
WIRE 1472 816 1312 816
WIRE 80 832 80 800
WIRE 592 832 592 800
WIRE 2080 832 2080 816
WIRE 256 864 256 848
WIRE 1360 880 1328 880
WIRE 1472 880 1440 880
WIRE 1872 896 1872 864
WIRE 1872 896 1824 896
WIRE 1872 912 1872 896
WIRE 1024 944 1024 352
WIRE 1312 944 1312 816
WIRE 1312 944 1024 944
WIRE 1472 944 1312 944
WIRE 1872 1008 1872 992
WIRE 1312 1056 1312 1008
FLAG 768 128 0
FLAG 656 784 0
FLAG -48 16 0
FLAG -48 -96 IN
FLAG 656 240 0
FLAG 592 832 0
FLAG 256 864 0
FLAG 768 464 0
FLAG 592 272 0
FLAG 480 464 0
FLAG 80 832 0
FLAG 1088 128 0
FLAG 1872 1008 0
FLAG 2080 832 0
FLAG 1984 496 0
FLAG 2080 720 OUT2
FLAG 1312 1056 0
FLAG 1328 880 0
FLAG 1984 448 0
FLAG 1696 432 0
FLAG 1472 416 0
FLAG 2096 272 0
FLAG 2192 272 0
FLAG 2192 160 OUT1
FLAG 1440 704 0
SYMBOL res 640 128 R0
SYMATTR InstName R2
SYMATTR Value 113k
SYMBOL res 640 16 R0
SYMATTR InstName R1
SYMATTR Value 2.15Meg
SYMBOL res 480 816 R270
WINDOW 0 32 56 VTop 2
WINDOW 3 0 56 VBottom 2
SYMATTR InstName R6
SYMATTR Value 12k
SYMBOL cap 416 784 M90
WINDOW 0 0 32 VBottom 2
WINDOW 3 32 32 VTop 2
SYMATTR InstName C5
SYMATTR Value 47n
SYMBOL ind 432 -96 R0
WINDOW 0 42 41 Left 2
WINDOW 3 39 68 Left 2
SYMATTR InstName L1
SYMATTR Value 2.2µ
SYMBOL schottky 528 0 M90
WINDOW 0 0 32 VBottom 2
WINDOW 3 32 32 VTop 2
SYMATTR InstName D1
SYMATTR Value MBRS140
SYMATTR Description Diode
SYMATTR Type diode
SYMBOL cap 752 32 R0
SYMATTR InstName C1
SYMATTR Value 10µ
SYMBOL cap 640 704 R0
SYMATTR InstName C4
SYMATTR Value 1µ
SYMBOL VOLTAGE -48 -96 R0
WINDOW 123 0 0 Left 0
WINDOW 39 24 44 Left 2
SYMATTR InstName V1
SYMATTR Value 5
SYMATTR SpiceLine Rser=10
SYMBOL res 640 576 R0
SYMATTR InstName R5
SYMATTR Value 100k
SYMBOL res 640 448 R0
SYMATTR InstName R4
SYMATTR Value 2.1Meg
SYMBOL ind 464 352 R0
SYMATTR InstName L2
SYMATTR Value 3.3µ
SYMBOL schottky 624 336 R90
WINDOW 0 0 32 VBottom 2
WINDOW 3 32 32 VTop 2
SYMATTR InstName D2
SYMATTR Value MBRS140
SYMATTR Description Diode
SYMATTR Type diode
SYMBOL cap 752 368 R0
SYMATTR InstName C3
SYMATTR Value 10µ
SYMBOL res 480 256 R270
WINDOW 0 32 56 VTop 2
WINDOW 3 0 56 VBottom 2
SYMATTR InstName R3
SYMATTR Value 8.2k
SYMBOL cap 416 224 M90
WINDOW 0 0 32 VBottom 2
WINDOW 3 32 32 VTop 2
SYMATTR InstName C2
SYMATTR Value 47n
SYMBOL PowerProducts\\ADP5071 256 352 R0
SYMATTR InstName U1
SYMBOL ind 912 32 R270
WINDOW 0 32 56 VTop 2
WINDOW 3 5 56 VBottom 2
SYMATTR InstName L3
SYMATTR Value 3.3µ
SYMBOL ind 912 368 R270
WINDOW 0 32 56 VTop 2
WINDOW 3 5 56 VBottom 2
SYMATTR InstName L4
SYMATTR Value 2.2µ
SYMBOL cap 1072 16 R0
SYMATTR InstName C6
SYMATTR Value 10µ
SYMBOL res 1552 528 R0
SYMATTR InstName R8
SYMATTR Value 150k
SYMBOL res 1856 768 R0
SYMATTR InstName R9
SYMATTR Value 2.2Meg
SYMBOL res 1856 896 R0
SYMATTR InstName R10
SYMATTR Value 4.7k
SYMBOL res 1456 736 R90
WINDOW 0 0 56 VBottom 2
WINDOW 3 32 56 VTop 2
SYMATTR InstName R11
SYMATTR Value 100K
SYMBOL cap 1968 592 R0
SYMATTR InstName C7
SYMATTR Value 10µ
SYMBOL cap 1440 544 R0
SYMATTR InstName C8
SYMATTR Value 4.7µ
SYMBOL LT3094 1648 768 R0
SYMATTR InstName U2
SYMBOL cap 1296 944 R0
SYMATTR InstName C9
SYMATTR Value 10µ
SYMBOL res 2064 720 R0
SYMATTR InstName R13
SYMATTR Value 200
SYMBOL res 1456 864 R90
WINDOW 0 0 56 VBottom 2
WINDOW 3 32 56 VTop 2
SYMATTR InstName R14
SYMATTR Value 100k
SYMBOL res 1248 160 R0
SYMATTR InstName R15
SYMATTR Value 100k
SYMBOL res 1968 224 R0
SYMATTR InstName R16
SYMATTR Value 2.2Meg
SYMBOL res 1968 336 R0
SYMATTR InstName R17
SYMATTR Value 2.2k
SYMBOL cap 1456 336 R0
WINDOW 39 24 65 Left 2
WINDOW 3 39 36 Left 2
SYMATTR SpiceLine Rpar=33.2K
SYMATTR Value 4.7µ
SYMATTR InstName C12
SYMBOL cap 2080 176 R0
SYMATTR InstName C13
SYMATTR Value 10µ
SYMATTR SpiceLine Rser=3m
SYMBOL res 2176 160 R0
SYMATTR InstName Rload1
SYMATTR Value 200
SYMBOL LT3045 1600 160 R0
SYMATTR InstName U3
TEXT 736 864 Left 2 !.tran 100m startup
