Version 4
SHEET 1 3444 916
WIRE 96 -96 -48 -96
WIRE 112 -96 96 -96
WIRE 448 -96 400 -96
WIRE -48 -80 -48 -96
WIRE 448 -80 448 -96
WIRE -48 16 -48 0
WIRE 96 16 96 -96
WIRE 112 16 96 16
WIRE 448 16 448 0
WIRE 448 16 400 16
WIRE 528 16 448 16
WIRE 656 16 592 16
WIRE 768 16 656 16
WIRE 928 16 768 16
WIRE 1088 16 1008 16
WIRE 1216 16 1088 16
WIRE 1584 16 1472 16
WIRE 1712 16 1584 16
WIRE 1760 16 1712 16
WIRE 656 32 656 16
WIRE 768 32 768 16
WIRE 1216 112 1168 112
WIRE 96 128 96 16
WIRE 112 128 96 128
WIRE 656 128 656 112
WIRE 656 128 400 128
WIRE 768 128 768 96
WIRE 1088 128 1088 80
WIRE 656 144 656 128
WIRE 1712 160 1712 80
WIRE 1216 208 1152 208
WIRE 1584 208 1584 96
WIRE 1584 208 1472 208
WIRE 96 240 96 128
WIRE 112 240 96 240
WIRE 416 240 400 240
WIRE 496 240 480 240
WIRE 592 240 576 240
WIRE 656 240 656 224
WIRE 592 272 592 240
WIRE 1152 288 1152 272
WIRE 1344 288 1344 272
WIRE 1584 320 1584 288
WIRE 96 352 96 240
WIRE 112 352 96 352
WIRE 480 352 400 352
WIRE 560 352 480 352
WIRE 656 352 624 352
WIRE 768 352 656 352
WIRE 928 352 768 352
WIRE 1088 352 1008 352
WIRE 1168 352 1088 352
WIRE 1216 352 1168 352
WIRE 1568 352 1504 352
WIRE 1712 352 1568 352
WIRE 1760 352 1712 352
WIRE 480 368 480 352
WIRE 768 368 768 352
WIRE 1168 448 1168 352
WIRE 1216 448 1168 448
WIRE 1568 448 1568 432
WIRE 1568 448 1504 448
WIRE 112 464 96 464
WIRE 480 464 480 448
WIRE 656 464 656 352
WIRE 768 464 768 432
WIRE 1088 464 1088 416
WIRE 1712 480 1712 416
WIRE 1360 528 1360 512
WIRE 656 576 656 544
WIRE 656 576 400 576
WIRE 656 592 656 576
WIRE 1568 592 1568 448
WIRE 96 688 96 464
WIRE 112 688 96 688
WIRE 656 688 656 672
WIRE 656 688 400 688
WIRE 656 704 656 688
WIRE 1568 704 1568 672
WIRE 656 784 656 768
WIRE 112 800 80 800
WIRE 416 800 400 800
WIRE 496 800 480 800
WIRE 592 800 576 800
WIRE 80 832 80 800
WIRE 592 832 592 800
WIRE 256 864 256 848
FLAG 768 128 0
FLAG 656 784 0
FLAG -48 16 0
FLAG -48 -96 IN
FLAG 656 240 0
FLAG 592 832 0
FLAG 256 864 0
FLAG 768 464 0
FLAG 592 272 0
FLAG 480 464 0
FLAG 80 832 0
FLAG 1088 128 0
FLAG 1088 464 0
FLAG 1584 320 0
FLAG 1568 704 0
FLAG 1712 480 0
FLAG 1712 160 0
FLAG 1760 16 out1
FLAG 1760 352 out2
FLAG 1344 288 0
FLAG 1360 528 0
FLAG 96 352 En
IOPIN 96 352 Out
FLAG 1168 112 En
IOPIN 1168 112 In
FLAG 1152 288 0
SYMBOL res 640 128 R0
SYMATTR InstName R2
SYMATTR Value 113k
SYMBOL res 640 16 R0
SYMATTR InstName R1
SYMATTR Value 2.15Meg
SYMBOL res 480 816 R270
WINDOW 0 32 56 VTop 2
WINDOW 3 0 56 VBottom 2
SYMATTR InstName R6
SYMATTR Value 12k
SYMBOL cap 416 784 M90
WINDOW 0 0 32 VBottom 2
WINDOW 3 32 32 VTop 2
SYMATTR InstName C5
SYMATTR Value 47n
SYMBOL ind 432 -96 R0
WINDOW 0 42 41 Left 2
WINDOW 3 39 68 Left 2
SYMATTR InstName L1
SYMATTR Value 2.2u
SYMBOL schottky 528 0 M90
WINDOW 0 0 32 VBottom 2
WINDOW 3 32 32 VTop 2
SYMATTR InstName D1
SYMATTR Value MBRS140
SYMATTR Description Diode
SYMATTR Type diode
SYMBOL cap 752 32 R0
SYMATTR InstName C1
SYMATTR Value 10u
SYMBOL cap 640 704 R0
SYMATTR InstName C4
SYMATTR Value 1u
SYMBOL VOLTAGE -48 -96 R0
SYMATTR InstName V1
SYMATTR Value 5
SYMBOL res 640 576 R0
SYMATTR InstName R5
SYMATTR Value 100k
SYMBOL res 640 448 R0
SYMATTR InstName R4
SYMATTR Value 2.1Meg
SYMBOL ind 464 352 R0
SYMATTR InstName L2
SYMATTR Value 3.3u
SYMBOL schottky 624 336 R90
WINDOW 0 0 32 VBottom 2
WINDOW 3 32 32 VTop 2
SYMATTR InstName D2
SYMATTR Value MBRS140
SYMATTR Description Diode
SYMATTR Type diode
SYMBOL cap 752 368 R0
SYMATTR InstName C3
SYMATTR Value 10u
SYMBOL res 480 256 R270
WINDOW 0 32 56 VTop 2
WINDOW 3 0 56 VBottom 2
SYMATTR InstName R3
SYMATTR Value 8.2k
SYMBOL cap 416 224 M90
WINDOW 0 0 32 VBottom 2
WINDOW 3 32 32 VTop 2
SYMATTR InstName C2
SYMATTR Value 47n
SYMBOL PowerProducts\\ADP5071 256 352 R0
SYMATTR InstName U1
SYMBOL ind 912 32 R270
WINDOW 0 32 56 VTop 2
WINDOW 3 5 56 VBottom 2
SYMATTR InstName L3
SYMATTR Value 33u
SYMBOL ind 912 368 R270
WINDOW 0 32 56 VTop 2
WINDOW 3 5 56 VBottom 2
SYMATTR InstName L4
SYMATTR Value 33u
SYMBOL PowerProducts\\ADP7142 1344 112 R0
SYMATTR InstName U2
SYMBOL cap 1072 16 R0
SYMATTR InstName C6
SYMATTR Value 1u
SYMBOL cap 1072 352 R0
SYMATTR InstName C7
SYMATTR Value 2.2u
SYMBOL res 1552 336 R0
SYMATTR InstName R7
SYMATTR Value 68k
SYMBOL res 1552 576 R0
SYMATTR InstName R8
SYMATTR Value 15k
SYMBOL res 1568 0 R0
SYMATTR InstName R9
SYMATTR Value 100k
SYMBOL res 1568 192 R0
SYMATTR InstName R10
SYMATTR Value 8.2k
SYMBOL cap 1696 16 R0
SYMATTR InstName C8
SYMATTR Value 2.2u
SYMBOL cap 1696 352 R0
SYMATTR InstName C9
SYMATTR Value 2.2u
SYMBOL cap 1136 208 R0
SYMATTR InstName C12
SYMATTR Value 1n
SYMBOL PowerProducts\\LT1964-SD 1360 400 R0
SYMATTR InstName U3
TEXT 736 864 Left 2 !.tran 6m startup
